Program Version,EnergyPlus, Version 9.6.0-f420c06a69, YMD=2022.02.10 16:57,
   ************* PythonPlugin: Class AverageZoneTemps imported from: /Users/weilixu/PycharmProjects/eplus-multithreading/eplus_files/bldg3/PythonPluginCustomSchedule3.py
   ************* PythonPlugin: Class CoolingSetPoint imported from: /Users/weilixu/PycharmProjects/eplus-multithreading/eplus_files/bldg3/PythonPluginCustomSchedule3.py
   ************* PythonPlugin: Class HeatingSetPoint imported from: /Users/weilixu/PycharmProjects/eplus-multithreading/eplus_files/bldg3/PythonPluginCustomSchedule3.py
   ************* Beginning Zone Sizing Calculations
   ************* Beginning System Sizing Calculations
   ************* Beginning Plant Sizing Calculations
   ** Warning ** Check input. Pump nominal power or motor efficiency is set to 0, for pump=SHWSYS1 PUMP
   ************* Testing Individual Branch Integrity
   ************* All Branches passed integrity testing
   ************* Testing Individual Supply Air Path Integrity
   ************* All Supply Air Paths passed integrity testing
   ************* Testing Individual Return Air Path Integrity
   ************* All Return Air Paths passed integrity testing
   ************* No node connection errors were found.
   ************* Beginning Simulation
   ** Warning ** In Output:Table:Monthly 'COMPONENTS OF PEAK ELECTRICAL DEMAND' invalid Variable or Meter Name 'HEATREJECTION:ELECTRICITY'
   ** Warning ** In Output:Table:Monthly 'COMPONENTS OF PEAK ELECTRICAL DEMAND' invalid Variable or Meter Name 'EXTERIOREQUIPMENT:ELECTRICITY'
   ** Warning ** In Output:Table:Monthly 'COMPONENTS OF PEAK ELECTRICAL DEMAND' invalid Variable or Meter Name 'HUMIDIFICATION:ELECTRICITY'
   ** Warning ** In Output:Table:Monthly 'COMPONENTS OF PEAK ELECTRICAL DEMAND' invalid Variable or Meter Name 'HEATRECOVERY:ELECTRICITY'
   ** Warning ** In Output:Table:Monthly 'COMPONENTS OF PEAK ELECTRICAL DEMAND' invalid Variable or Meter Name 'WATERSYSTEMS:ELECTRICITY'
   ** Warning ** In Output:Table:Monthly 'COMPONENTS OF PEAK ELECTRICAL DEMAND' invalid Variable or Meter Name 'REFRIGERATION:ELECTRICITY'
   ** Warning ** In Output:Table:Monthly 'COMPONENTS OF PEAK ELECTRICAL DEMAND' invalid Variable or Meter Name 'GENERATORS:ELECTRICITY'
   ** Warning ** In Output:Table:Monthly 'COMPONENTS OF PEAK ELECTRICAL DEMAND' invalid Variable or Meter Name 'ELECTRICITYPRODUCED:FACILITY'
   ** Warning ** In Output:Table:Monthly 'COMPONENTS OF PEAK NET ELECTRICAL DEMAND' invalid Variable or Meter Name 'HEATREJECTION:ELECTRICITY'
   ** Warning ** In Output:Table:Monthly 'COMPONENTS OF PEAK NET ELECTRICAL DEMAND' invalid Variable or Meter Name 'EXTERIOREQUIPMENT:ELECTRICITY'
   ** Warning ** In Output:Table:Monthly 'COMPONENTS OF PEAK NET ELECTRICAL DEMAND' invalid Variable or Meter Name 'HUMIDIFICATION:ELECTRICITY'
   ** Warning ** In Output:Table:Monthly 'COMPONENTS OF PEAK NET ELECTRICAL DEMAND' invalid Variable or Meter Name 'HEATRECOVERY:ELECTRICITY'
   ** Warning ** In Output:Table:Monthly 'COMPONENTS OF PEAK NET ELECTRICAL DEMAND' invalid Variable or Meter Name 'WATERSYSTEMS:ELECTRICITY'
   ** Warning ** In Output:Table:Monthly 'COMPONENTS OF PEAK NET ELECTRICAL DEMAND' invalid Variable or Meter Name 'REFRIGERATION:ELECTRICITY'
   ** Warning ** In Output:Table:Monthly 'COMPONENTS OF PEAK NET ELECTRICAL DEMAND' invalid Variable or Meter Name 'GENERATORS:ELECTRICITY'
   ** Warning ** In Output:Table:Monthly 'COMPONENTS OF PEAK NET ELECTRICAL DEMAND' invalid Variable or Meter Name 'ELECTRICITYPRODUCED:FACILITY'
   ** Warning ** In Output:Table:Monthly 'ENERGY CONSUMPTION - ELECTRICITY & NATURAL GAS' invalid Variable or Meter Name 'NATURALGAS:BUILDING'
   ** Warning ** In Output:Table:Monthly 'ENERGY CONSUMPTION - ELECTRICITY & NATURAL GAS' invalid Variable or Meter Name 'NATURALGAS:BUILDING'
   ** Warning ** In Output:Table:Monthly 'BUILDING ENERGY PERFORMANCE - ELECTRICITY' invalid Variable or Meter Name 'TASKLIGHTS:INTERIORLIGHTS:ELECTRICITY'
   ** Warning ** In Output:Table:Monthly 'BUILDING ENERGY PERFORMANCE - ELECTRICITY' invalid Variable or Meter Name 'GENERAL:INTERIOREQUIPMENT:ELECTRICITY'
   ** Warning ** In Output:Table:Monthly 'BUILDING ENERGY PERFORMANCE - ELECTRICITY' invalid Variable or Meter Name 'EXTERIOREQUIPMENT:ELECTRICITY'
   ** Warning ** In Output:Table:Monthly 'BUILDING ENERGY PERFORMANCE - ELECTRICITY' invalid Variable or Meter Name 'HEATREJECTION:ELECTRICITY'
   ** Warning ** In Output:Table:Monthly 'BUILDING ENERGY PERFORMANCE - ELECTRICITY' invalid Variable or Meter Name 'HUMIDIFIER:ELECTRICITY'
   ** Warning ** In Output:Table:Monthly 'BUILDING ENERGY PERFORMANCE - ELECTRICITY' invalid Variable or Meter Name 'HEATRECOVERY:ELECTRICITY'
   ** Warning ** In Output:Table:Monthly 'BUILDING ENERGY PERFORMANCE - ELECTRICITY' invalid Variable or Meter Name 'WATERSYSTEMS:ELECTRICITY'
   ** Warning ** In Output:Table:Monthly 'BUILDING ENERGY PERFORMANCE - ELECTRICITY' invalid Variable or Meter Name 'COGENERATION:ELECTRICITY'
   ** Warning ** In Output:Table:Monthly 'BUILDING ENERGY PERFORMANCE - NATURAL GAS' invalid Variable or Meter Name 'INTERIOREQUIPMENT:NATURALGAS'
   ** Warning ** In Output:Table:Monthly 'BUILDING ENERGY PERFORMANCE - NATURAL GAS' invalid Variable or Meter Name 'EXTERIOREQUIPMENT:NATURALGAS'
   ** Warning ** In Output:Table:Monthly 'BUILDING ENERGY PERFORMANCE - NATURAL GAS' invalid Variable or Meter Name 'COOLING:NATURALGAS'
   ** Warning ** In Output:Table:Monthly 'BUILDING ENERGY PERFORMANCE - NATURAL GAS' invalid Variable or Meter Name 'COGENERATION:NATURALGAS'
   ** Warning ** In Output:Table:Monthly 'PEAK ENERGY END-USE - ELECTRICITY PART 1' invalid Variable or Meter Name 'TASKLIGHTS:INTERIORLIGHTS:ELECTRICITY'
   ** Warning ** In Output:Table:Monthly 'PEAK ENERGY END-USE - ELECTRICITY PART 1' invalid Variable or Meter Name 'GENERAL:INTERIOREQUIPMENT:ELECTRICITY'
   ** Warning ** In Output:Table:Monthly 'PEAK ENERGY END-USE - ELECTRICITY PART 1' invalid Variable or Meter Name 'EXTERIOREQUIPMENT:ELECTRICITY'
   ** Warning ** CalcDoe2DXCoil: Coil:Cooling:DX:SingleSpeed "PSZ-AC:1_COOLC DXCOIL" - Full load outlet air dry-bulb temperature < 2C. This indicates the possibility of coil frost/freeze. Outlet temperature = -0.18 C.
   **   ~~~   **  ...Occurrence info = RUN PERIOD 1, 01/02 19:10 - 19:12
   **   ~~~   ** ... Possible reasons for low outlet air dry-bulb temperatures are: This DX coil
   **   ~~~   **    1) may have a low inlet air dry-bulb temperature. Inlet air temperature = 15.582 C.
   **   ~~~   **    2) may have a low air flow rate per watt of cooling capacity. Check inputs.
   **   ~~~   **    3) is used as part of a HX assisted cooling coil which uses a high sensible effectiveness. Check inputs.
   ** Warning ** CalcDoe2DXCoil: Coil:Cooling:DX:SingleSpeed "PSZ-AC:2_COOLC DXCOIL" - Full load outlet air dry-bulb temperature < 2C. This indicates the possibility of coil frost/freeze. Outlet temperature = -0.40 C.
   **   ~~~   **  ...Occurrence info = RUN PERIOD 1, 01/02 19:10 - 19:12
   **   ~~~   ** ... Possible reasons for low outlet air dry-bulb temperatures are: This DX coil
   **   ~~~   **    1) may have a low inlet air dry-bulb temperature. Inlet air temperature = 17.758 C.
   **   ~~~   **    2) may have a low air flow rate per watt of cooling capacity. Check inputs.
   **   ~~~   **    3) is used as part of a HX assisted cooling coil which uses a high sensible effectiveness. Check inputs.
   ** Warning ** CalcDoe2DXCoil: Coil:Cooling:DX:SingleSpeed "PSZ-AC:3_COOLC DXCOIL" - Full load outlet air dry-bulb temperature < 2C. This indicates the possibility of coil frost/freeze. Outlet temperature = 1.44 C.
   **   ~~~   **  ...Occurrence info = RUN PERIOD 1, 01/02 19:10 - 19:12
   **   ~~~   ** ... Possible reasons for low outlet air dry-bulb temperatures are: This DX coil
   **   ~~~   **    1) may have a low inlet air dry-bulb temperature. Inlet air temperature = 17.815 C.
   **   ~~~   **    2) may have a low air flow rate per watt of cooling capacity. Check inputs.
   **   ~~~   **    3) is used as part of a HX assisted cooling coil which uses a high sensible effectiveness. Check inputs.
   *